439207
  Marvin  12310709273D          

108112  0  0  1  0            999 V2000
    0.3212    1.6299   -3.0322 O   0  0  0  0  0  0  0  0  0  0  0  0
    3.6931    0.3757   -3.1960 O   0  0  0  0  0  0  0  0  0  0  0  0
   -0.7805    3.5726   -3.0766 O   0  0  0  0  0  0  0  0  0  0  0  0
    0.5383    0.0985   -0.2517 O   0  0  0  0  0  0  0  0  0  0  0  0
    0.6557   -0.2784    2.0616 O   0  0  0  0  0  0  0  0  0  0  0  0
   -1.7939   -1.1461    3.7563 O   0  0  0  0  0  0  0  0  0  0  0  0
    4.3289   -1.6645   -4.3638 O   0  0  0  0  0  0  0  0  0  0  0  0
    3.8510    3.0659   -1.4505 O   0  0  0  0  0  0  0  0  0  0  0  0
    1.7177    4.4616   -3.5893 O   0  0  0  0  0  0  0  0  0  0  0  0
   -4.0633    1.5614   -3.4406 O   0  0  0  0  0  0  0  0  0  0  0  0
   -3.0280    0.2993    5.1356 O   0  0  0  0  0  0  0  0  0  0  0  0
   -0.1839   -3.7517    1.7184 O   0  0  0  0  0  0  0  0  0  0  0  0
   -2.0212   -0.7062    0.9088 O   0  0  0  0  0  0  0  0  0  0  0  0
    5.7655   -1.2499   -1.8615 O   0  0  0  0  0  0  0  0  0  0  0  0
   -2.5661    5.3960   -4.1863 O   0  0  0  0  0  0  0  0  0  0  0  0
    2.9324   -3.5898   -1.6355 O   0  0  0  0  0  0  0  0  0  0  0  0
    6.1988   -3.7725   -3.3115 O   0  0  0  0  0  0  0  0  0  0  0  0
   -4.8247    4.4008   -5.6363 O   0  0  0  0  0  0  0  0  0  0  0  0
   -2.8783   -2.4481    6.1017 O   0  0  0  0  0  0  0  0  0  0  0  0
   -0.6835   -0.0613    7.8356 O   0  0  0  0  0  0  0  0  0  0  0  0
   -4.3321   -0.5001    7.7481 O   0  0  0  0  0  0  0  0  0  0  0  0
   -4.0643    1.6341   -5.7948 O   0  0  0  0  0  0  0  0  0  0  0  0
    3.1253   -1.1400    3.3832 O   0  0  0  0  0  0  0  0  0  0  0  0
   -1.9665    1.6115   -0.6319 O   0  0  0  0  0  0  0  0  0  0  0  0
    2.2538   -2.8826   -6.0242 O   0  0  0  0  0  0  0  0  0  0  0  0
   -2.3987    3.1066    5.1276 O   0  0  0  0  0  0  0  0  0  0  0  0
    2.7293    1.0988   -2.3655 C   0  0  2  0  0  0  0  0  0  0  0  0
    1.2571    0.6374   -2.6271 C   0  0  1  0  0  0  0  0  0  0  0  0
    2.9324    2.6490   -2.4688 C   0  0  1  0  0  0  0  0  0  0  0  0
    1.6699    3.5876   -2.4604 C   0  0  2  0  0  0  0  0  0  0  0  0
    0.2802    2.8869   -2.3720 C   0  0  2  0  0  0  0  0  0  0  0  0
   -0.6577   -1.9509    3.3478 C   0  0  1  0  0  0  0  0  0  0  0  0
   -2.2011    3.2434   -3.0451 C   0  0  1  0  0  0  0  0  0  0  0  0
    0.7166   -0.3943   -1.5966 C   0  0  0  0  0  0  0  0  0  0  0  0
   -1.0272   -2.6325    1.9972 C   0  0  1  0  0  0  0  0  0  0  0  0
   -0.9537   -1.6428    0.8055 C   0  0  2  0  0  0  0  0  0  0  0  0
    0.4129   -0.9017    0.7867 C   0  0  1  0  0  0  0  0  0  0  0  0
    3.7470   -1.0772   -3.1798 C   0  0  1  0  0  0  0  0  0  0  0  0
    0.6815   -1.1463    3.2187 C   0  0  1  0  0  0  0  0  0  0  0  0
    4.4059   -1.6751   -1.9082 C   0  0  1  0  0  0  0  0  0  0  0  0
   -2.7992    3.9908   -4.2778 C   0  0  1  0  0  0  0  0  0  0  0  0
   -2.6822    1.7444   -3.0549 C   0  0  1  0  0  0  0  0  0  0  0  0
    4.2861   -3.2241   -1.9139 C   0  0  2  0  0  0  0  0  0  0  0  0
    4.7738   -3.8392   -3.2572 C   0  0  1  0  0  0  0  0  0  0  0  0
   -1.8426   -0.5195    5.0571 C   0  0  1  0  0  0  0  0  0  0  0  0
    4.1923   -3.1075   -4.5083 C   0  0  1  0  0  0  0  0  0  0  0  0
   -4.3154    3.7315   -4.4855 C   0  0  2  0  0  0  0  0  0  0  0  0
   -1.8147   -1.5088    6.2543 C   0  0  1  0  0  0  0  0  0  0  0  0
   -1.9170   -0.7426    7.5992 C   0  0  2  0  0  0  0  0  0  0  0  0
   -3.1189    0.2423    7.6150 C   0  0  1  0  0  0  0  0  0  0  0  0
   -4.5829    2.2144   -4.5994 C   0  0  2  0  0  0  0  0  0  0  0  0
   -3.1963    1.1141    6.3229 C   0  0  1  0  0  0  0  0  0  0  0  0
    1.9805   -1.9865    3.3587 C   0  0  0  0  0  0  0  0  0  0  0  0
   -2.6502    0.9748   -1.7004 C   0  0  0  0  0  0  0  0  0  0  0  0
    2.7630   -3.5913   -4.9005 C   0  0  0  0  0  0  0  0  0  0  0  0
   -2.2788    2.3684    6.3385 C   0  0  0  0  0  0  0  0  0  0  0  0
    2.9666    0.8513   -1.3268 H   0  0  0  0  0  0  0  0  0  0  0  0
    1.2422    0.1257   -3.5909 H   0  0  0  0  0  0  0  0  0  0  0  0
    3.4833    2.8297   -3.3957 H   0  0  0  0  0  0  0  0  0  0  0  0
    1.7255    4.2730   -1.6082 H   0  0  0  0  0  0  0  0  0  0  0  0
    0.0347    2.7807   -1.3158 H   0  0  0  0  0  0  0  0  0  0  0  0
   -0.5418   -2.7619    4.0705 H   0  0  0  0  0  0  0  0  0  0  0  0
   -2.6137    3.7194   -2.1527 H   0  0  0  0  0  0  0  0  0  0  0  0
   -0.1911   -0.8482   -1.9831 H   0  0  0  0  0  0  0  0  0  0  0  0
    1.4226   -1.2183   -1.5515 H   0  0  0  0  0  0  0  0  0  0  0  0
   -2.0375   -3.0486    2.0551 H   0  0  0  0  0  0  0  0  0  0  0  0
   -1.0944   -2.1894   -0.1297 H   0  0  0  0  0  0  0  0  0  0  0  0
    1.2155   -1.6325    0.6479 H   0  0  0  0  0  0  0  0  0  0  0  0
    2.7312   -1.4363   -3.2473 H   0  0  0  0  0  0  0  0  0  0  0  0
    0.7708   -0.4595    4.0562 H   0  0  0  0  0  0  0  0  0  0  0  0
    3.9273   -1.2908   -1.0053 H   0  0  0  0  0  0  0  0  0  0  0  0
   -2.2745    3.6593   -5.1798 H   0  0  0  0  0  0  0  0  0  0  0  0
   -2.0836    1.2086   -3.7984 H   0  0  0  0  0  0  0  0  0  0  0  0
    4.8686   -3.6342   -1.0845 H   0  0  0  0  0  0  0  0  0  0  0  0
    4.5252   -4.9034   -3.2844 H   0  0  0  0  0  0  0  0  0  0  0  0
   -1.0016    0.1672    5.1268 H   0  0  0  0  0  0  0  0  0  0  0  0
    4.8139   -3.3669   -5.3687 H   0  0  0  0  0  0  0  0  0  0  0  0
   -4.8638    4.1166   -3.6199 H   0  0  0  0  0  0  0  0  0  0  0  0
   -0.8830   -2.0781    6.2582 H   0  0  0  0  0  0  0  0  0  0  0  0
   -2.0147   -1.4618    8.4171 H   0  0  0  0  0  0  0  0  0  0  0  0
   -3.0615    0.8772    8.5029 H   0  0  0  0  0  0  0  0  0  0  0  0
   -5.6605    2.0337   -4.6005 H   0  0  0  0  0  0  0  0  0  0  0  0
   -4.2118    1.5131    6.2547 H   0  0  0  0  0  0  0  0  0  0  0  0
    1.9634   -2.5522    4.2928 H   0  0  0  0  0  0  0  0  0  0  0  0
    2.1045   -2.6971    2.5435 H   0  0  0  0  0  0  0  0  0  0  0  0
    4.0155    4.0218   -1.5932 H   0  0  0  0  0  0  0  0  0  0  0  0
    2.5600    4.9571   -3.4925 H   0  0  0  0  0  0  0  0  0  0  0  0
   -2.2263   -0.0122   -1.8603 H   0  0  0  0  0  0  0  0  0  0  0  0
   -3.6402    0.7795   -1.2804 H   0  0  0  0  0  0  0  0  0  0  0  0
    2.7765   -4.6530   -5.1534 H   0  0  0  0  0  0  0  0  0  0  0  0
    2.0431   -3.4687   -4.0912 H   0  0  0  0  0  0  0  0  0  0  0  0
   -0.3163   -4.3748    2.4630 H   0  0  0  0  0  0  0  0  0  0  0  0
   -2.8418   -1.2400    0.8519 H   0  0  0  0  0  0  0  0  0  0  0  0
   -2.5495    3.0280    7.1648 H   0  0  0  0  0  0  0  0  0  0  0  0
   -1.2282    2.1062    6.4596 H   0  0  0  0  0  0  0  0  0  0  0  0
    6.1272   -1.6352   -1.0361 H   0  0  0  0  0  0  0  0  0  0  0  0
   -3.0295    5.6836   -3.3723 H   0  0  0  0  0  0  0  0  0  0  0  0
    2.9080   -4.5693   -1.6374 H   0  0  0  0  0  0  0  0  0  0  0  0
    6.5102   -4.2815   -2.5337 H   0  0  0  0  0  0  0  0  0  0  0  0
   -5.7821    4.1849   -5.6503 H   0  0  0  0  0  0  0  0  0  0  0  0
   -2.8010   -3.0577    6.8651 H   0  0  0  0  0  0  0  0  0  0  0  0
   -0.7868    0.3904    8.6985 H   0  0  0  0  0  0  0  0  0  0  0  0
   -4.2460   -0.9899    8.5933 H   0  0  0  0  0  0  0  0  0  0  0  0
   -4.3431    0.6939   -5.7634 H   0  0  0  0  0  0  0  0  0  0  0  0
    3.8865   -1.7436    3.5140 H   0  0  0  0  0  0  0  0  0  0  0  0
   -2.4657    2.4374   -0.4635 H   0  0  0  0  0  0  0  0  0  0  0  0
    1.3585   -3.2582   -6.1699 H   0  0  0  0  0  0  0  0  0  0  0  0
   -1.7781    3.8591    5.2305 H   0  0  0  0  0  0  0  0  0  0  0  0
  1 28  1  0  0  0  0
  1 31  1  0  0  0  0
 27  2  1  0  0  0  0
 38  2  1  0  0  0  0
 31  3  1  0  0  0  0
 33  3  1  0  0  0  0
  4 34  1  0  0  0  0
 37  4  1  0  0  0  0
  5 37  1  0  0  0  0
  5 39  1  0  0  0  0
 32  6  1  0  0  0  0
 45  6  1  0  0  0  0
  7 38  1  0  0  0  0
  7 46  1  0  0  0  0
 29  8  1  0  0  0  0
  8 86  1  0  0  0  0
 30  9  1  0  0  0  0
  9 87  1  0  0  0  0
 10 42  1  0  0  0  0
 10 51  1  0  0  0  0
 11 45  1  0  0  0  0
 11 52  1  0  0  0  0
 35 12  1  0  0  0  0
 12 92  1  0  0  0  0
 36 13  1  0  0  0  0
 13 93  1  0  0  0  0
 40 14  1  0  0  0  0
 14 96  1  0  0  0  0
 41 15  1  0  0  0  0
 15 97  1  0  0  0  0
 43 16  1  0  0  0  0
 16 98  1  0  0  0  0
 44 17  1  0  0  0  0
 17 99  1  0  0  0  0
 47 18  1  0  0  0  0
 18100  1  0  0  0  0
 48 19  1  0  0  0  0
 19101  1  0  0  0  0
 49 20  1  0  0  0  0
 20102  1  0  0  0  0
 50 21  1  0  0  0  0
 21103  1  0  0  0  0
 51 22  1  0  0  0  0
 22104  1  0  0  0  0
 23 53  1  0  0  0  0
 23105  1  0  0  0  0
 24 54  1  0  0  0  0
 24106  1  0  0  0  0
 25 55  1  0  0  0  0
 25107  1  0  0  0  0
 26 56  1  0  0  0  0
 26108  1  0  0  0  0
 27 28  1  0  0  0  0
 27 29  1  0  0  0  0
 27 57  1  0  0  0  0
 28 34  1  0  0  0  0
 28 58  1  0  0  0  0
 29 30  1  0  0  0  0
 29 59  1  0  0  0  0
 30 31  1  0  0  0  0
 30 60  1  0  0  0  0
 31 61  1  0  0  0  0
 32 35  1  0  0  0  0
 32 39  1  0  0  0  0
 32 62  1  0  0  0  0
 33 41  1  0  0  0  0
 33 42  1  0  0  0  0
 33 63  1  0  0  0  0
 34 64  1  0  0  0  0
 34 65  1  0  0  0  0
 35 36  1  0  0  0  0
 35 66  1  0  0  0  0
 36 37  1  0  0  0  0
 36 67  1  0  0  0  0
 37 68  1  0  0  0  0
 38 40  1  0  0  0  0
 38 69  1  0  0  0  0
 39 53  1  0  0  0  0
 39 70  1  0  0  0  0
 40 43  1  0  0  0  0
 40 71  1  0  0  0  0
 41 47  1  0  0  0  0
 41 72  1  0  0  0  0
 42 54  1  0  0  0  0
 42 73  1  0  0  0  0
 43 44  1  0  0  0  0
 43 74  1  0  0  0  0
 44 46  1  0  0  0  0
 44 75  1  0  0  0  0
 45 48  1  0  0  0  0
 45 76  1  0  0  0  0
 46 55  1  0  0  0  0
 46 77  1  0  0  0  0
 47 51  1  0  0  0  0
 47 78  1  0  0  0  0
 48 49  1  0  0  0  0
 48 79  1  0  0  0  0
 49 50  1  0  0  0  0
 49 80  1  0  0  0  0
 50 52  1  0  0  0  0
 50 81  1  0  0  0  0
 51 82  1  0  0  0  0
 52 56  1  0  0  0  0
 52 83  1  0  0  0  0
 53 84  1  0  0  0  0
 53 85  1  0  0  0  0
 54 88  1  0  0  0  0
 54 89  1  0  0  0  0
 55 90  1  0  0  0  0
 55 91  1  0  0  0  0
 56 94  1  0  0  0  0
 56 95  1  0  0  0  0
M  END

> <PUBCHEM_BONDANNOTATIONS>
35  12  5
36  13  6
40  14  5
41  15  5
43  16  6
44  17  5
47  18  6
48  19  6
27  2  6
38  2  5
49  20  5
50  21  6
51  22  6
28  34  5
31  3  6
33  3  6
39  53  5
37  4  6
42  54  5
46  55  6
52  56  5
32  6  6
45  6  6
29  8  5
30  9  6

> <StdInChI>
InChI=1S/C30H52O26/c31-1-6-11(35)13(37)19(43)28(50-6)55-24-9(4-34)52-27(21(45)16(24)40)48-5-10-25(56-29-20(44)14(38)12(36)7(2-32)51-29)17(41)22(46)30(53-10)54-23-8(3-33)49-26(47)18(42)15(23)39/h6-47H,1-5H2/t6-,7-,8-,9-,10-,11-,12-,13+,14+,15-,16-,17-,18-,19-,20-,21-,22-,23-,24-,25-,26+,27+,28-,29-,30-/m1/s1

> <StdInChIKey>
WMGFVAGNIYUEEP-WUYNJSITSA-N

> <AuxInfo>
1/0/N:56,55,54,53,34,52,46,42,39,28,50,44,49,43,41,35,29,47,48,40,36,30,33,32,27,51,37,45,38,31,26,25,24,23,21,17,20,16,15,12,8,18,19,14,13,9,22,4,10,11,7,5,1,3,6,2/it:im/rA:108cOOOOOOOOOOOOOOOOOOOOOOOOOOCCCCCCCCCCCCCCCCCCCCCCCCCCCCCCHHHHHHHHHHHHHHHHHHHHHHHHHHHHHHHHHHHHHHHHHHHHHHHHHHHH/rB:;;;;;;;;;;;;;;;;;;;;;;;;;s2;s1s27;s8s27;s9s29;s1s3s30;s6;s3;s4s28;s12s32;s13s35;s4s5s36;s2s7;s5s32;s14s38;s15s33;s10s33;s16s40;s17s43;s6s11;s7s44;s18s41;s19s45;s20s48;s21s49;s10s22s47;s11s50;s23s39;s24s42;s25s46;s26s52;s27;s28;s29;s30;s31;s32;s33;s34;s34;s35;s36;s37;s38;s39;s40;s41;s42;s43;s44;s45;s46;s47;s48;s49;s50;s51;s52;s53;s53;s8;s9;s54;s54;s55;s55;s12;s13;s56;s56;s14;s15;s16;s17;s18;s19;s20;s21;s22;s23;s24;s25;s26;/rC:.3212,1.6299,-3.0322;3.6931,.3757,-3.196;-.7805,3.5726,-3.0766;.5383,.0985,-.2517;.6557,-.2784,2.0616;-1.7939,-1.1461,3.7563;4.3289,-1.6645,-4.3638;3.851,3.0659,-1.4505;1.7177,4.4616,-3.5893;-4.0633,1.5614,-3.4406;-3.028,.2993,5.1356;-.1839,-3.7517,1.7184;-2.0212,-.7062,.9088;5.7655,-1.2499,-1.8615;-2.5661,5.396,-4.1863;2.9324,-3.5898,-1.6355;6.1988,-3.7725,-3.3115;-4.8247,4.4008,-5.6363;-2.8783,-2.4481,6.1017;-.6835,-.0613,7.8356;-4.3321,-.5001,7.7481;-4.0643,1.6341,-5.7948;3.1253,-1.14,3.3832;-1.9665,1.6115,-.6319;2.2538,-2.8826,-6.0242;-2.3987,3.1066,5.1276;2.7293,1.0988,-2.3655;1.2571,.6374,-2.6271;2.9324,2.649,-2.4688;1.6699,3.5876,-2.4604;.2802,2.8869,-2.372;-.6577,-1.9509,3.3478;-2.2011,3.2434,-3.0451;.7166,-.3943,-1.5966;-1.0272,-2.6325,1.9972;-.9537,-1.6428,.8055;.4129,-.9017,.7867;3.747,-1.0772,-3.1798;.6815,-1.1463,3.2187;4.4059,-1.6751,-1.9082;-2.7992,3.9908,-4.2778;-2.6822,1.7444,-3.0549;4.2861,-3.2241,-1.9139;4.7738,-3.8392,-3.2572;-1.8426,-.5195,5.0571;4.1923,-3.1075,-4.5083;-4.3154,3.7315,-4.4855;-1.8147,-1.5088,6.2543;-1.917,-.7426,7.5992;-3.1189,.2423,7.615;-4.5829,2.2144,-4.5994;-3.1963,1.1141,6.3229;1.9805,-1.9865,3.3587;-2.6502,.9748,-1.7004;2.763,-3.5913,-4.9005;-2.2788,2.3684,6.3385;2.9666,.8513,-1.3268;1.2422,.1257,-3.5909;3.4833,2.8297,-3.3957;1.7255,4.273,-1.6082;.0347,2.7807,-1.3158;-.5418,-2.7619,4.0705;-2.6137,3.7194,-2.1527;-.1911,-.8482,-1.9831;1.4226,-1.2183,-1.5515;-2.0375,-3.0486,2.0551;-1.0944,-2.1894,-.1297;1.2155,-1.6325,.6479;2.7312,-1.4363,-3.2473;.7708,-.4595,4.0562;3.9273,-1.2908,-1.0053;-2.2745,3.6593,-5.1798;-2.0836,1.2086,-3.7984;4.8686,-3.6342,-1.0845;4.5252,-4.9034,-3.2844;-1.0016,.1672,5.1268;4.8139,-3.3669,-5.3687;-4.8638,4.1166,-3.6199;-.883,-2.0781,6.2582;-2.0147,-1.4618,8.4171;-3.0615,.8772,8.5029;-5.6605,2.0337,-4.6005;-4.2118,1.5131,6.2547;1.9634,-2.5522,4.2928;2.1045,-2.6971,2.5435;4.0155,4.0218,-1.5932;2.56,4.9571,-3.4925;-2.2263,-.0122,-1.8603;-3.6402,.7795,-1.2804;2.7765,-4.653,-5.1534;2.0431,-3.4687,-4.0912;-.3163,-4.3748,2.463;-2.8418,-1.24,.8519;-2.5495,3.028,7.1648;-1.2282,2.1062,6.4596;6.1272,-1.6352,-1.0361;-3.0295,5.6836,-3.3723;2.908,-4.5693,-1.6374;6.5102,-4.2815,-2.5337;-5.7821,4.1849,-5.6503;-2.801,-3.0577,6.8651;-.7868,.3904,8.6985;-4.246,-.9899,8.5933;-4.3431,.6939,-5.7634;3.8865,-1.7436,3.514;-2.4657,2.4374,-.4635;1.3585,-3.2582,-6.1699;-1.7781,3.8591,5.2305;

> <Formula>
C30 H52 O26

> <Mw>
828.7183

> <SMILES>
O1[C@@]([H])([C@@]([H])([C@]([H])([C@@]([H])([C@@]1([H])C([H])([H])O[C@]1([H])[C@@]([H])([C@]([H])([C@@]([H])([C@@]([H])(C([H])([H])O[H])O1)O[C@]1([H])[C@@]([H])([C@]([H])([C@@]([H])([C@@]([H])(C([H])([H])O[H])O1)O[H])O[H])O[H])O[H])O[H])O[C@]1([H])[C@@]([H])([C@]([H])([C@@]([H])([C@@]([H])(C([H])([H])O[H])O1)O[H])O[H])O[H])O[H])O[H])O[C@]1([H])[C@@]([H])(C([H])([H])O[H])O[C@@]([H])([C@@]([H])([C@@]1([H])O[H])O[H])O[H]

> <CSID>
388347

$$$$
